test/data/r2_35_00_1/result.csv
# result.csv run at 2000-01-01 00:00:00 EST on 4500 powerflow objects (not all are nodes)
node_name,voltA_real,voltA_imag,voltB_real,voltB_imag,voltC_real,voltC_imag
R2-35-00-1_cap_1,19843.741777,-29.181259,-9950.880289,-17168.648600,-9898.598448,17209.819823
R2-35-00-1_cap_2,19593.273787,-181.046324,-9969.479862,-16885.848476,-9659.121540,17103.984603
R2-35-00-1_cap_3,19718.419750,-4.869752,-9904.963896,-17090.141812,-9885.086663,17145.184684
R2-35-00-1_cap_4,19505.753571,-274.899583,-10010.210943,-16752.408508,-9532.526411,17093.727187
R2-35-00-1_cap_5,19190.875415,-336.193989,-9928.603727,-16477.964266,-9353.175471,16878.006980
R2-35-00-1_cap_6,19439.961251,-286.663536,-9974.630025,-16661.912163,-9453.637058,17044.549596
R2-35-00-1_cap_7,19433.767903,-287.527262,-9971.956162,-16656.554517,-9449.541464,17038.838407
R2-35-00-1_cap_8,19091.635460,-347.795963,-9897.409845,-16395.458428,-9304.752658,16808.150248
R2-35-00-1_cap_9,0.000000,0.000000,0.000000,0.000000,-9506.858790,17080.503678
R2-35-00-1_cap_10,0.000000,0.000000,0.000000,0.000000,-9484.951177,17071.777501
R2-35-00-1_cap_11,0.000000,0.000000,0.000000,0.000000,-9363.078522,16890.733066
R2-35-00-1_cap_12,0.000000,0.000000,0.000000,0.000000,-9455.540995,17065.231139
R2-35-00-1_cap_13,19003.607781,-338.020396,0.000000,0.000000,0.000000,0.000000
R2-35-00-1_load_1,275.670117,-0.835769,-138.469550,-238.158210,-136.684968,238.885658
R2-35-00-1_load_2,268.338540,-4.959765,0.000000,0.000000,0.000000,0.000000
R2-35-00-1_load_3,274.917940,-0.861980,-138.398201,-237.761015,-136.792466,238.839500
R2-35-00-1_load_4,261.766867,-6.161320,0.000000,0.000000,0.000000,0.000000
R2-35-00-1_load_5,256.746908,-9.075843,0.000000,0.000000,0.000000,0.000000
R2-35-00-1_load_6,268.369714,-4.805327,0.000000,0.000000,0.000000,0.000000
R2-35-00-1_load_7,263.233161,-7.693735,0.000000,0.000000,0.000000,0.000000
R2-35-00-1_load_8,263.638813,-5.077319,-137.110094,-226.391474,-128.477036,232.556289
R2-35-00-1_load_9,263.242916,-7.691245,0.000000,0.000000,0.000000,0.000000
R2-35-00-1_load_10,263.244137,-7.691461,0.000000,0.000000,0.000000,0.000000
R2-35-00-1_load_11,263.245677,-7.691168,0.000000,0.000000,0.000000,0.000000
R2-35-00-1_load_12,273.993539,-1.150364,-138.129884,-236.711909,-136.146504,238.163050
R2-35-00-1_load_13,0.000000,0.000000,-139.443230,-234.694649,0.000000,0.000000
R2-35-00-1_load_14,0.000000,0.000000,-138.133986,-231.261988,0.000000,0.000000
R2-35-00-1_load_15,272.250438,-2.958824,-138.973628,-234.797304,-134.132637,238.169103
R2-35-00-1_load_16,271.923460,-3.077141,-138.777117,-234.835681,-134.250640,237.997811
R2-35-00-1_load_17,0.000000,0.000000,-138.844467,-228.805938,0.000000,0.000000
R2-35-00-1_load_18,0.000000,0.000000,0.000000,0.000000,-134.888692,237.510245
R2-35-00-1_load_19,269.542428,-4.090348,0.000000,0.000000,0.000000,0.000000
R2-35-00-1_load_20,0.000000,0.000000,-138.183686,-234.142496,0.000000,0.000000
R2-35-00-1_load_21,274.608374,-1.089179,-138.445410,-237.835123,-136.855518,238.790239
R2-35-00-1_load_22,0.000000,0.000000,-138.082420,-224.122680,0.000000,0.000000
R2-35-00-1_load_23,272.743879,-2.654737,-138.859300,-234.904655,-134.140962,238.046243
R2-35-00-1_load_24,272.121789,-3.064587,-138.903156,-234.216060,-133.671008,237.800996
R2-35-00-1_load_25,272.626669,-2.749040,-138.892709,-234.579404,-134.144115,238.094811
R2-35-00-1_load_26,0.000000,0.000000,0.000000,0.000000,-131.447530,235.553291
R2-35-00-1_load_27,0.000000,0.000000,-138.290733,-224.375620,0.000000,0.000000
R2-35-00-1_load_28,274.185166,-1.281446,0.000000,0.000000,0.000000,0.000000
R2-35-00-1_load_29,269.537567,-4.093000,0.000000,0.000000,0.000000,0.000000
R2-35-00-1_load_30,274.877897,-0.644504,-138.076408,-237.261036,-137.011488,238.711357
R2-35-00-1_load_31,274.512567,-0.772934,-138.003803,-237.508453,-136.778099,238.572071
R2-35-00-1_load_32,0.000000,0.000000,-138.215391,-231.373469,0.000000,0.000000
R2-35-00-1_load_33,274.524022,-1.168570,-138.553001,-237.009621,-136.125671,238.725490
R2-35-00-1_load_34,0.000000,0.000000,-138.033596,-234.830564,0.000000,0.000000
R2-35-00-1_load_35,0.000000,0.000000,-138.090004,-229.844462,0.000000,0.000000
R2-35-00-1_load_36,0.000000,0.000000,-138.058562,-224.126597,0.000000,0.000000
R2-35-00-1_load_37,0.000000,0.000000,-138.085408,-224.145837,0.000000,0.000000
R2-35-00-1_load_38,0.000000,0.000000,-138.133918,-229.856225,0.000000,0.000000
R2-35-00-1_load_39,0.000000,0.000000,-138.078735,-224.117935,0.000000,0.000000
R2-35-00-1_load_40,0.000000,0.000000,0.000000,0.000000,-134.184913,237.102768
R2-35-00-1_load_41,0.000000,0.000000,0.000000,0.000000,-131.440609,235.566759
R2-35-00-1_load_42,0.000000,0.000000,0.000000,0.000000,-125.350400,231.999990
R2-35-00-1_load_43,0.000000,0.000000,0.000000,0.000000,-134.877733,237.478280
R2-35-00-1_load_44,0.000000,0.000000,0.000000,0.000000,-131.446531,235.550448
R2-35-00-1_load_45,0.000000,0.000000,-138.324048,-230.090737,0.000000,0.000000
R2-35-00-1_load_46,274.567422,-0.698171,-138.072569,-236.958637,-136.866937,238.665483
R2-35-00-1_load_47,274.410901,-0.795819,-138.064134,-237.254143,-136.668861,238.394186
R2-35-00-1_load_48,0.000000,0.000000,-138.056322,-234.019532,0.000000,0.000000
R2-35-00-1_load_49,0.000000,0.000000,-138.107911,-231.264301,0.000000,0.000000
R2-35-00-1_load_50,0.000000,0.000000,-138.072919,-224.110181,0.000000,0.000000
R2-35-00-1_load_51,0.000000,0.000000,-138.074541,-224.112402,0.000000,0.000000
R2-35-00-1_load_52,260.464214,-9.764747,0.000000,0.000000,0.000000,0.000000
R2-35-00-1_load_53,274.316970,-1.396997,-138.438509,-236.863012,-136.027824,238.491393
R2-35-00-1_load_54,272.440048,-2.876156,-138.907825,-234.521620,-133.800694,237.927870
R2-35-00-1_load_55,0.000000,0.000000,0.000000,0.000000,-125.353028,231.957314
R2-35-00-1_load_56,273.585849,-1.032789,-137.993818,-236.518898,-136.172388,237.999207
R2-35-00-1_load_57,0.000000,0.000000,-138.036936,-236.046146,-135.702862,237.791623
R2-35-00-1_load_58,0.000000,0.000000,0.000000,0.000000,-130.367576,235.184536
R2-35-00-1_load_59,272.118544,-3.064246,-138.901331,-234.213735,-133.669940,237.798129
R2-35-00-1_load_60,271.886259,-3.041751,-138.781593,-233.832876,-133.581769,237.601715
R2-35-00-1_load_61,275.217203,-0.879862,-138.445369,-237.835147,-136.855552,238.790220
R2-35-00-1_load_62,0.000000,0.000000,0.000000,0.000000,-125.351935,231.954394
R2-35-00-1_load_63,0.000000,0.000000,0.000000,0.000000,-119.048823,228.038465
R2-35-00-1_load_64,0.000000,0.000000,-138.261519,-224.351090,0.000000,0.000000
R2-35-00-1_load_65,0.000000,0.000000,-138.263143,-224.353083,0.000000,0.000000
R2-35-00-1_load_66,0.000000,0.000000,-138.312851,-231.481247,0.000000,0.000000
R2-35-00-1_load_67,273.585025,-1.032668,-137.992616,-236.518453,-136.171730,237.996566
R2-35-00-1_load_68,274.457321,-0.571029,-137.988381,-237.458832,-136.950792,238.451352
R2-35-00-1_load_69,0.000000,0.000000,-138.070247,-224.106881,0.000000,0.000000
R2-35-00-1_load_70,0.000000,0.000000,-138.125929,-229.846110,0.000000,0.000000
R2-35-00-1_load_71,0.000000,0.000000,-138.069309,-224.105771,0.000000,0.000000
R2-35-00-1_load_72,0.000000,0.000000,-139.070082,-234.119896,0.000000,0.000000
R2-35-00-1_load_73,272.481873,-2.852200,-138.900842,-234.652537,-133.902387,237.923850
R2-35-00-1_load_74,272.172917,-2.991303,-138.880993,-234.333664,-133.166280,237.827592
R2-35-00-1_load_75,271.991702,-3.094873,-138.878089,-234.129167,-133.605779,237.709222
R2-35-00-1_load_76,271.963731,-2.979295,-138.761100,-234.129894,-133.671253,237.635308
R2-35-00-1_load_77,0.000000,0.000000,0.000000,0.000000,-135.324301,237.671526
R2-35-00-1_load_78,0.000000,0.000000,0.000000,0.000000,-130.239707,234.829393
R2-35-00-1_load_79,262.822136,-7.999473,0.000000,0.000000,0.000000,0.000000
R2-35-00-1_load_80,0.000000,0.000000,0.000000,0.000000,-125.349293,231.947340
R2-35-00-1_load_81,0.000000,0.000000,-138.316788,-230.082178,0.000000,0.000000
R2-35-00-1_load_82,0.000000,0.000000,0.000000,0.000000,-125.458229,231.875188
R2-35-00-1_load_83,273.953882,-0.894307,-137.927239,-236.711365,-136.794535,238.251596
R2-35-00-1_load_84,274.348202,-0.637609,-137.999992,-236.850109,-136.423050,238.166602
R2-35-00-1_load_85,0.000000,0.000000,-138.052384,-224.076535,0.000000,0.000000
R2-35-00-1_load_86,271.929471,-3.170626,-139.100700,-234.213717,-133.506516,237.690791
R2-35-00-1_load_87,0.000000,0.000000,-138.852542,-220.961639,0.000000,0.000000
R2-35-00-1_load_88,272.394030,-2.774114,-138.825394,-234.643376,-134.077897,237.910547
R2-35-00-1_load_89,272.040599,-3.063756,-138.875666,-234.186035,-132.920859,237.330177
R2-35-00-1_load_90,271.423439,-3.290429,-138.757969,-233.517703,-133.148253,237.330146
R2-35-00-1_load_91,272.117665,-2.880155,-138.762261,-233.827732,-133.411473,237.487318
R2-35-00-1_load_92,272.427091,-2.662261,-138.733253,-234.772776,-134.240976,237.923855
R2-35-00-1_load_93,272.500307,-2.633275,-138.738576,-234.760962,-134.225259,237.925689
R2-35-00-1_load_94,262.820443,-7.998733,0.000000,0.000000,0.000000,0.000000
R2-35-00-1_load_95,271.935386,-3.132428,0.000000,0.000000,0.000000,0.000000
R2-35-00-1_load_96,0.000000,0.000000,0.000000,0.000000,-125.478508,231.808770
R2-35-00-1_load_97,272.157012,-2.958369,-138.971926,-234.417165,-133.782724,237.671761
R2-35-00-1_load_98,272.466814,-2.705368,-138.819282,-234.798914,-134.181873,237.946936
R2-35-00-1_load_99,272.211755,-2.758366,-138.716250,-234.484335,-133.997684,237.755384
R2-35-00-1_load_100,272.202760,-2.753369,-138.707666,-234.479241,-133.997655,237.745442
R2-35-00-1_load_101,271.968409,-2.897830,-138.857658,-234.341244,-133.800503,237.807410
R2-35-00-1_load_102,273.818621,-0.625128,-137.899509,-236.994025,-136.724042,238.187512
R2-35-00-1_load_103,274.068700,-0.540890,-138.008046,-237.263203,-136.895039,238.243977
R2-35-00-1_load_104,272.482800,-2.960469,-138.997756,-234.591103,-133.938544,238.053416
R2-35-00-1_load_105,271.488694,-3.433436,-138.905003,-233.521829,-133.072019,237.446920
R2-35-00-1_load_106,275.442002,-0.859467,-138.525123,-238.060690,-136.970821,238.942015
R2-35-00-1_load_107,272.263227,-2.851324,-138.932479,-234.562514,-133.624413,237.585836
R2-35-00-1_load_108,272.201583,-2.752920,-138.706720,-234.478474,-133.997482,237.744242
R2-35-00-1_load_109,0.000000,0.000000,-138.771251,-226.625644,0.000000,0.000000
R2-35-00-1_load_110,272.156582,-2.735490,-138.668186,-234.444134,-133.987101,237.699533
R2-35-00-1_load_111,272.339162,-2.729549,-138.734181,-234.571226,-134.062692,237.830463
R2-35-00-1_load_112,272.844291,-1.228835,0.000000,0.000000,-135.745919,237.658835
R2-35-00-1_load_113,274.170557,-0.298649,-137.852270,-237.482347,-137.206663,238.405263
R2-35-00-1_load_114,271.922154,-3.168941,-138.894542,-234.019984,-133.558398,237.947509
R2-35-00-1_load_115,272.480630,-2.959896,-138.996227,-234.589472,-133.937870,238.051418
R2-35-00-1_load_116,270.902918,-3.531517,0.000000,0.000000,-132.859755,237.590353
R2-35-00-1_load_117,269.589716,-4.318896,0.000000,0.000000,-131.460892,236.366157
R2-35-00-1_load_118,260.113234,-9.713755,0.000000,0.000000,0.000000,0.000000
R2-35-00-1_load_119,271.764048,-2.987503,-138.832113,-234.100712,-133.630282,237.574504
R2-35-00-1_load_120,253.185240,-13.285262,0.000000,0.000000,0.000000,0.000000
R2-35-00-1_load_121,272.198909,-2.705434,-138.666316,-234.331897,-134.032214,237.721437
R2-35-00-1_load_122,272.032423,-2.811060,-138.670781,-234.301550,-133.863275,237.630914
R2-35-00-1_load_123,267.293333,-4.459108,0.000000,0.000000,0.000000,0.000000
R2-35-00-1_load_124,273.550688,-0.631165,-137.842953,-237.309912,-137.088183,238.326644
R2-35-00-1_load_125,272.472668,-2.959252,-138.991808,-234.582810,-133.934252,238.044599
R2-35-00-1_load_126,272.472821,-2.959226,-138.991862,-234.582955,-133.934350,238.044718
R2-35-00-1_load_127,272.472940,-2.959206,-138.991905,-234.583068,-133.934427,238.044811
R2-35-00-1_load_128,272.475573,-2.958763,-138.992837,-234.585569,-133.936123,238.046863
R2-35-00-1_load_129,253.223716,-13.306993,0.000000,0.000000,0.000000,0.000000
R2-35-00-1_load_130,260.065502,-9.688854,0.000000,0.000000,0.000000,0.000000
R2-35-00-1_load_131,268.028443,-5.190856,0.000000,0.000000,-129.981585,235.519245
R2-35-00-1_load_132,265.231765,-6.811656,0.000000,0.000000,0.000000,0.000000
R2-35-00-1_load_133,275.055888,-0.771891,-138.459861,-237.695334,-136.750634,238.872752
R2-35-00-1_load_134,253.212799,-13.287229,0.000000,0.000000,0.000000,0.000000
R2-35-00-1_load_135,0.000000,0.000000,0.000000,0.000000,-130.391343,236.835419
R2-35-00-1_load_136,253.170231,-13.282715,0.000000,0.000000,0.000000,0.000000
R2-35-00-1_load_137,253.152732,-13.280567,0.000000,0.000000,0.000000,0.000000
R2-35-00-1_load_138,274.238535,-1.222763,-138.264731,-236.857557,-136.163476,238.335674
R2-35-00-1_load_139,273.149348,-1.181230,-137.850833,-235.838302,0.000000,0.000000
R2-35-00-1_load_140,273.511887,-0.755744,-137.848945,-235.692852,0.000000,0.000000
R2-35-00-1_load_141,0.000000,0.000000,0.000000,0.000000,-125.509158,231.722476
R2-35-00-1_load_142,260.038881,-9.684428,0.000000,0.000000,0.000000,0.000000
R2-35-00-1_load_143,253.149941,-13.280126,0.000000,0.000000,0.000000,0.000000
R2-35-00-1_load_144,265.207236,-6.805942,0.000000,0.000000,0.000000,0.000000
R2-35-00-1_load_145,272.436502,-1.086397,-138.013275,-236.878998,0.000000,0.000000
R2-35-00-1_load_146,0.000000,0.000000,0.000000,0.000000,-119.195332,227.790385
R2-35-00-1_load_147,273.460459,-0.737586,-137.840495,-235.667719,0.000000,0.000000
R2-35-00-1_load_148,272.484404,-1.003587,-138.220106,-236.154443,0.000000,0.000000
R2-35-00-1_load_149,0.000000,0.000000,-138.371798,-223.679435,0.000000,0.000000
R2-35-00-1_load_150,267.131281,-4.427293,0.000000,0.000000,0.000000,0.000000
R2-35-00-1_load_151,273.916441,-0.301340,-137.805697,-237.314515,-137.137729,238.300066
R2-35-00-1_load_152,0.000000,0.000000,-137.917614,-229.441682,0.000000,0.000000
R2-35-00-1_load_153,0.000000,0.000000,-138.859162,-233.719046,0.000000,0.000000
R2-35-00-1_load_154,0.000000,0.000000,-138.421192,-229.412060,0.000000,0.000000
R2-35-00-1_load_155,271.597504,-1.490637,0.000000,0.000000,0.000000,0.000000
R2-35-00-1_load_156,271.751695,-1.423281,0.000000,0.000000,0.000000,0.000000
R2-35-00-1_load_157,0.000000,0.000000,-138.874788,-233.729641,0.000000,0.000000
R2-35-00-1_load_158,0.000000,0.000000,0.000000,0.000000,-130.392390,234.575342
R2-35-00-1_load_159,267.114797,-4.418063,0.000000,0.000000,0.000000,0.000000
R2-35-00-1_load_160,273.530479,-0.545247,-137.821879,-236.867493,-136.746629,238.093277
R2-35-00-1_load_161,0.000000,0.000000,-137.861162,-223.692169,0.000000,0.000000
R2-35-00-1_load_162,274.201892,-1.375237,-138.396311,-236.756006,-135.993693,238.470205
R2-35-00-1_load_163,266.876247,-4.318642,0.000000,0.000000,0.000000,0.000000
R2-35-00-1_load_164,270.536937,-2.136118,0.000000,0.000000,0.000000,0.000000
R2-35-00-1_load_165,274.027028,-0.250498,-137.807781,-237.437345,-137.087263,238.276525
R2-35-00-1_load_166,273.344450,-0.683821,-137.889912,-237.466994,-137.192655,238.340905
R2-35-00-1_load_167,0.000000,0.000000,-138.861637,-233.719878,0.000000,0.000000
R2-35-00-1_load_168,261.765649,-7.225834,0.000000,0.000000,0.000000,0.000000
R2-35-00-1_load_169,262.018678,-7.337868,0.000000,0.000000,0.000000,0.000000
R2-35-00-1_load_170,273.893006,-0.511536,-137.826214,-237.055102,-136.934226,238.367671
R2-35-00-1_load_171,0.000000,0.000000,0.000000,0.000000,-125.492936,231.694848
R2-35-00-1_load_172,271.378301,-1.894968,0.000000,0.000000,-134.575585,236.920590
R2-35-00-1_load_173,269.753395,-4.784098,-139.290865,-231.192357,-131.011680,236.962864
R2-35-00-1_load_174,270.641876,-4.418465,-139.278643,-231.981903,-131.731171,237.531719
R2-35-00-1_load_175,270.700768,-4.312132,-139.251203,-231.732884,-131.826909,237.540002
R2-35-00-1_load_176,274.914951,-0.858910,-138.419770,-237.781686,-136.829087,238.874355
R2-35-00-1_load_177,270.608133,-4.239447,-139.256157,-231.363643,-131.855643,237.428950
R2-35-00-1_load_178,270.625821,-4.315199,-139.205640,-231.638030,-131.750201,237.489932
R2-35-00-1_load_179,0.000000,0.000000,-139.274698,-228.512560,0.000000,0.000000
R2-35-00-1_load_180,268.344145,-4.805441,0.000000,0.000000,0.000000,0.000000
R2-35-00-1_load_181,263.600434,-8.294799,0.000000,0.000000,0.000000,0.000000
R2-35-00-1_load_182,270.473778,-4.260641,-139.178747,-231.994833,-131.453276,237.194987
R2-35-00-1_load_183,270.828973,-4.113876,-139.230989,-232.478612,-132.121295,237.458025
R2-35-00-1_load_184,264.294164,-7.938961,0.000000,0.000000,0.000000,0.000000
R2-35-00-1_load_185,270.488517,-4.505042,-139.255729,-232.084126,-131.596894,237.446774
R2-35-00-1_load_186,269.285688,-4.825468,-139.136455,-231.121878,-131.548198,237.032668
R2-35-00-1_load_187,269.592030,-4.029683,0.000000,0.000000,0.000000,0.000000
R2-35-00-1_load_188,271.638359,-3.545963,-139.124751,-233.341912,-132.845118,237.743378
R2-35-00-1_load_189,269.509349,-4.672498,-138.988907,-231.263927,-130.539521,236.265277
R2-35-00-1_load_190,274.789819,-0.734992,-138.153831,-237.249854,-137.152504,238.740608
R2-35-00-1_load_191,0.000000,0.000000,0.000000,0.000000,-125.114593,233.539330
R2-35-00-1_load_192,0.000000,0.000000,0.000000,0.000000,-113.850203,226.445495
R2-35-00-1_load_193,0.000000,0.000000,-139.183004,-224.130770,0.000000,0.000000
R2-35-00-1_load_194,269.399673,-4.867849,-139.146858,-231.626883,-131.421690,237.160594
R2-35-00-1_load_195,270.315739,-4.348299,-139.165331,-232.145536,-131.262021,237.090565
R2-35-00-1_load_196,271.549307,-3.598171,-139.122361,-233.339794,-132.896844,237.770015
R2-35-00-1_load_197,0.000000,0.000000,-138.662581,-211.874435,0.000000,0.000000
R2-35-00-1_load_198,257.392211,-11.348270,0.000000,0.000000,0.000000,0.000000
R2-35-00-1_load_199,268.706459,-4.769907,-138.871674,-231.145186,-130.961414,236.329379
R2-35-00-1_load_200,268.268746,-4.734835,-138.829318,-230.292728,-130.579360,236.012201
...
R2-35-00-1_meter_1,275.670117,-0.835769,-138.469550,-238.158210,-136.684968,238.885658
R2-35-00-1_meter_2,268.338540,-4.959765,0.000000,0.000000,0.000000,0.000000
R2-35-00-1_meter_3,274.917940,-0.861980,-138.398201,-237.761015,-136.792466,238.839500
R2-35-00-1_meter_4,261.766867,-6.161320,0.000000,0.000000,0.000000,0.000000
R2-35-00-1_meter_5,256.746908,-9.075843,0.000000,0.000000,0.000000,0.000000
R2-35-00-1_meter_6,268.369714,-4.805327,0.000000,0.000000,0.000000,0.000000
R2-35-00-1_meter_7,263.233161,-7.693735,0.000000,0.000000,0.000000,0.000000
R2-35-00-1_meter_8,263.638813,-5.077319,-137.110094,-226.391474,-128.477036,232.556289
R2-35-00-1_meter_9,263.242916,-7.691245,0.000000,0.000000,0.000000,0.000000
R2-35-00-1_meter_10,263.244137,-7.691461,0.000000,0.000000,0.000000,0.000000
R2-35-00-1_meter_11,263.245677,-7.691168,0.000000,0.000000,0.000000,0.000000
R2-35-00-1_meter_12,273.993539,-1.150364,-138.129884,-236.711909,-136.146504,238.163050
R2-35-00-1_meter_13,0.000000,0.000000,-139.443230,-234.694649,0.000000,0.000000
R2-35-00-1_meter_14,0.000000,0.000000,-138.133986,-231.261988,0.000000,0.000000
R2-35-00-1_meter_15,272.250438,-2.958824,-138.973628,-234.797304,-134.132637,238.169103
R2-35-00-1_meter_16,271.923460,-3.077141,-138.777117,-234.835681,-134.250640,237.997811
R2-35-00-1_meter_17,0.000000,0.000000,-138.844467,-228.805938,0.000000,0.000000
R2-35-00-1_meter_18,0.000000,0.000000,0.000000,0.000000,-134.888692,237.510245
R2-35-00-1_meter_19,269.542428,-4.090348,0.000000,0.000000,0.000000,0.000000
R2-35-00-1_meter_20,0.000000,0.000000,-138.183686,-234.142496,0.000000,0.000000
R2-35-00-1_meter_21,274.608374,-1.089179,-138.445410,-237.835123,-136.855518,238.790239
R2-35-00-1_meter_22,0.000000,0.000000,-138.082420,-224.122680,0.000000,0.000000
R2-35-00-1_meter_23,272.743879,-2.654737,-138.859300,-234.904655,-134.140962,238.046243
R2-35-00-1_meter_24,272.121789,-3.064587,-138.903156,-234.216060,-133.671008,237.800996
R2-35-00-1_meter_25,272.626669,-2.749040,-138.892709,-234.579404,-134.144115,238.094811
R2-35-00-1_meter_26,0.000000,0.000000,0.000000,0.000000,-131.447530,235.553291
R2-35-00-1_meter_27,0.000000,0.000000,-138.290733,-224.375620,0.000000,0.000000
R2-35-00-1_meter_28,274.185166,-1.281446,0.000000,0.000000,0.000000,0.000000
R2-35-00-1_meter_29,269.537567,-4.093000,0.000000,0.000000,0.000000,0.000000
R2-35-00-1_meter_30,274.877897,-0.644504,-138.076408,-237.261036,-137.011488,238.711357
R2-35-00-1_meter_31,274.512567,-0.772934,-138.003803,-237.508453,-136.778099,238.572071
R2-35-00-1_meter_32,0.000000,0.000000,-138.215391,-231.373469,0.000000,0.000000
R2-35-00-1_meter_33,274.524022,-1.168570,-138.553001,-237.009621,-136.125671,238.725490
R2-35-00-1_meter_34,0.000000,0.000000,-138.033596,-234.830564,0.000000,0.000000
R2-35-00-1_meter_35,0.000000,0.000000,-138.090004,-229.844462,0.000000,0.000000
R2-35-00-1_meter_36,0.000000,0.000000,-138.058562,-224.126597,0.000000,0.000000
R2-35-00-1_meter_37,0.000000,0.000000,-138.085408,-224.145837,0.000000,0.000000
R2-35-00-1_meter_38,0.000000,0.000000,-138.133918,-229.856225,0.000000,0.000000
R2-35-00-1_meter_39,0.000000,0.000000,-138.078735,-224.117935,0.000000,0.000000
R2-35-00-1_meter_40,0.000000,0.000000,0.000000,0.000000,-134.184913,237.102768
R2-35-00-1_meter_41,0.000000,0.000000,0.000000,0.000000,-131.440609,235.566759
R2-35-00-1_meter_42,0.000000,0.000000,0.000000,0.000000,-125.350400,231.999990
R2-35-00-1_meter_43,0.000000,0.000000,0.000000,0.000000,-134.877733,237.478280
R2-35-00-1_meter_44,0.000000,0.000000,0.000000,0.000000,-131.446531,235.550448
R2-35-00-1_meter_45,0.000000,0.000000,-138.324048,-230.090737,0.000000,0.000000
R2-35-00-1_meter_46,274.567422,-0.698171,-138.072569,-236.958637,-136.866937,238.665483
R2-35-00-1_meter_47,274.410901,-0.795819,-138.064134,-237.254143,-136.668861,238.394186
R2-35-00-1_meter_48,0.000000,0.000000,-138.056322,-234.019532,0.000000,0.000000
R2-35-00-1_meter_49,0.000000,0.000000,-138.107911,-231.264301,0.000000,0.000000
R2-35-00-1_meter_50,0.000000,0.000000,-138.072919,-224.110181,0.000000,0.000000
R2-35-00-1_meter_51,0.000000,0.000000,-138.074541,-224.112402,0.000000,0.000000
R2-35-00-1_meter_52,260.464214,-9.764747,0.000000,0.000000,0.000000,0.000000
R2-35-00-1_meter_53,274.316970,-1.396997,-138.438509,-236.863012,-136.027824,238.491393
R2-35-00-1_meter_54,272.440048,-2.876156,-138.907825,-234.521620,-133.800694,237.927870
R2-35-00-1_meter_55,0.000000,0.000000,0.000000,0.000000,-125.353028,231.957314
R2-35-00-1_meter_56,273.585849,-1.032789,-137.993818,-236.518898,-136.172388,237.999207
R2-35-00-1_meter_57,0.000000,0.000000,-138.036936,-236.046146,-135.702862,237.791623
R2-35-00-1_meter_58,0.000000,0.000000,0.000000,0.000000,-130.367576,235.184536
R2-35-00-1_meter_59,272.118544,-3.064246,-138.901331,-234.213735,-133.669940,237.798129
R2-35-00-1_meter_60,271.886259,-3.041751,-138.781593,-233.832876,-133.581769,237.601715
R2-35-00-1_meter_61,275.217203,-0.879862,-138.445369,-237.835147,-136.855552,238.790220
R2-35-00-1_meter_62,0.000000,0.000000,0.000000,0.000000,-125.351935,231.954394
R2-35-00-1_meter_63,0.000000,0.000000,0.000000,0.000000,-119.048823,228.038465
R2-35-00-1_meter_64,0.000000,0.000000,-138.261519,-224.351090,0.000000,0.000000
R2-35-00-1_meter_65,0.000000,0.000000,-138.263143,-224.353083,0.000000,0.000000
R2-35-00-1_meter_66,0.000000,0.000000,-138.312851,-231.481247,0.000000,0.000000
R2-35-00-1_meter_67,273.585025,-1.032668,-137.992616,-236.518453,-136.171730,237.996566
R2-35-00-1_meter_68,274.457321,-0.571029,-137.988381,-237.458832,-136.950792,238.451352
R2-35-00-1_meter_69,0.000000,0.000000,-138.070247,-224.106881,0.000000,0.000000
R2-35-00-1_meter_70,0.000000,0.000000,-138.125929,-229.846110,0.000000,0.000000
R2-35-00-1_meter_71,0.000000,0.000000,-138.069309,-224.105771,0.000000,0.000000
R2-35-00-1_meter_72,0.000000,0.000000,-139.070082,-234.119896,0.000000,0.000000
R2-35-00-1_meter_73,272.481873,-2.852200,-138.900842,-234.652537,-133.902387,237.923850
R2-35-00-1_meter_74,272.172917,-2.991303,-138.880993,-234.333664,-133.166280,237.827592
R2-35-00-1_meter_75,271.991702,-3.094873,-138.878089,-234.129167,-133.605779,237.709222
R2-35-00-1_meter_76,271.963731,-2.979295,-138.761100,-234.129894,-133.671253,237.635308
R2-35-00-1_meter_77,0.000000,0.000000,0.000000,0.000000,-135.324301,237.671526
R2-35-00-1_meter_78,0.000000,0.000000,0.000000,0.000000,-130.239707,234.829393
R2-35-00-1_meter_79,262.822136,-7.999473,0.000000,0.000000,0.000000,0.000000
R2-35-00-1_meter_80,0.000000,0.000000,0.000000,0.000000,-125.349293,231.947340
R2-35-00-1_meter_81,0.000000,0.000000,-138.316788,-230.082178,0.000000,0.000000
R2-35-00-1_meter_82,0.000000,0.000000,0.000000,0.000000,-125.458229,231.875188
R2-35-00-1_meter_83,273.953882,-0.894307,-137.927239,-236.711365,-136.794535,238.251596
R2-35-00-1_meter_84,274.348202,-0.637609,-137.999992,-236.850109,-136.423050,238.166602
R2-35-00-1_meter_85,0.000000,0.000000,-138.052384,-224.076535,0.000000,0.000000
R2-35-00-1_meter_86,271.929471,-3.170626,-139.100700,-234.213717,-133.506516,237.690791
R2-35-00-1_meter_87,0.000000,0.000000,-138.852542,-220.961639,0.000000,0.000000
R2-35-00-1_meter_88,272.394030,-2.774114,-138.825394,-234.643376,-134.077897,237.910547
R2-35-00-1_meter_89,272.040599,-3.063756,-138.875666,-234.186035,-132.920859,237.330177
R2-35-00-1_meter_90,271.423439,-3.290429,-138.757969,-233.517703,-133.148253,237.330146
R2-35-00-1_meter_91,272.117665,-2.880155,-138.762261,-233.827732,-133.411473,237.487318
R2-35-00-1_meter_92,272.427091,-2.662261,-138.733253,-234.772776,-134.240976,237.923855
R2-35-00-1_meter_93,272.500307,-2.633275,-138.738576,-234.760962,-134.225259,237.925689
R2-35-00-1_meter_94,262.820443,-7.998733,0.000000,0.000000,0.000000,0.000000
R2-35-00-1_meter_95,271.935386,-3.132428,0.000000,0.000000,0.000000,0.000000
R2-35-00-1_meter_96,0.000000,0.000000,0.000000,0.000000,-125.478508,231.808770
R2-35-00-1_meter_97,272.157012,-2.958369,-138.971926,-234.417165,-133.782724,237.671761
R2-35-00-1_meter_98,272.466814,-2.705368,-138.819282,-234.798914,-134.181873,237.946936
R2-35-00-1_meter_99,272.211755,-2.758366,-138.716250,-234.484335,-133.997684,237.755384
R2-35-00-1_meter_100,272.202760,-2.753369,-138.707666,-234.479241,-133.997655,237.745442
R2-35-00-1_meter_101,271.968409,-2.897830,-138.857658,-234.341244,-133.800503,237.807410
R2-35-00-1_meter_102,273.818621,-0.625128,-137.899509,-236.994025,-136.724042,238.187512
R2-35-00-1_meter_103,274.068700,-0.540890,-138.008046,-237.263203,-136.895039,238.243977
R2-35-00-1_meter_104,272.482800,-2.960469,-138.997756,-234.591103,-133.938544,238.053416
R2-35-00-1_meter_105,271.488694,-3.433436,-138.905003,-233.521829,-133.072019,237.446920
R2-35-00-1_meter_106,275.442002,-0.859467,-138.525123,-238.060690,-136.970821,238.942015
R2-35-00-1_meter_107,272.263227,-2.851324,-138.932479,-234.562514,-133.624413,237.585836
R2-35-00-1_meter_108,272.201583,-2.752920,-138.706720,-234.478474,-133.997482,237.744242
R2-35-00-1_meter_109,0.000000,0.000000,-138.771251,-226.625644,0.000000,0.000000
R2-35-00-1_meter_110,272.156582,-2.735490,-138.668186,-234.444134,-133.987101,237.699533
R2-35-00-1_meter_111,272.339162,-2.729549,-138.734181,-234.571226,-134.062692,237.830463
R2-35-00-1_meter_112,272.844291,-1.228835,0.000000,0.000000,-135.745919,237.658835
R2-35-00-1_meter_113,274.170557,-0.298649,-137.852270,-237.482347,-137.206663,238.405263
R2-35-00-1_meter_114,271.922154,-3.168941,-138.894542,-234.019984,-133.558398,237.947509
R2-35-00-1_meter_115,272.480630,-2.959896,-138.996227,-234.589472,-133.937870,238.051418
R2-35-00-1_meter_116,270.902918,-3.531517,0.000000,0.000000,-132.859755,237.590353
R2-35-00-1_meter_117,269.589716,-4.318896,0.000000,0.000000,-131.460892,236.366157
R2-35-00-1_meter_118,260.113234,-9.713755,0.000000,0.000000,0.000000,0.000000
R2-35-00-1_meter_119,271.764048,-2.987503,-138.832113,-234.100712,-133.630282,237.574504
R2-35-00-1_meter_120,253.185240,-13.285262,0.000000,0.000000,0.000000,0.000000
R2-35-00-1_meter_121,272.198909,-2.705434,-138.666316,-234.331897,-134.032214,237.721437
R2-35-00-1_meter_122,272.032423,-2.811060,-138.670781,-234.301550,-133.863275,237.630914
R2-35-00-1_meter_123,267.293333,-4.459108,0.000000,0.000000,0.000000,0.000000
R2-35-00-1_meter_124,273.550688,-0.631165,-137.842953,-237.309912,-137.088183,238.326644
R2-35-00-1_meter_125,272.472668,-2.959252,-138.991808,-234.582810,-133.934252,238.044599
R2-35-00-1_meter_126,272.472821,-2.959226,-138.991862,-234.582955,-133.934350,238.044718
R2-35-00-1_meter_127,272.472940,-2.959206,-138.991905,-234.583068,-133.934427,238.044811
R2-35-00-1_meter_128,272.475573,-2.958763,-138.992837,-234.585569,-133.936123,238.046863
R2-35-00-1_meter_129,253.223716,-13.306993,0.000000,0.000000,0.000000,0.000000
R2-35-00-1_meter_130,260.065502,-9.688854,0.000000,0.000000,0.000000,0.000000
R2-35-00-1_meter_131,268.028443,-5.190856,0.000000,0.000000,-129.981585,235.519245
R2-35-00-1_meter_132,265.231765,-6.811656,0.000000,0.000000,0.000000,0.000000
R2-35-00-1_meter_133,275.055888,-0.771891,-138.459861,-237.695334,-136.750634,238.872752
R2-35-00-1_meter_134,253.212799,-13.287229,0.000000,0.000000,0.000000,0.000000
R2-35-00-1_meter_135,0.000000,0.000000,0.000000,0.000000,-130.391343,236.835419
R2-35-00-1_meter_136,253.170231,-13.282715,0.000000,0.000000,0.000000,0.000000
R2-35-00-1_meter_137,253.152732,-13.280567,0.000000,0.000000,0.000000,0.000000
R2-35-00-1_meter_138,274.238535,-1.222763,-138.264731,-236.857557,-136.163476,238.335674
R2-35-00-1_meter_139,273.149348,-1.181230,-137.850833,-235.838302,0.000000,0.000000
R2-35-00-1_meter_140,273.511887,-0.755744,-137.848945,-235.692852,0.000000,0.000000
R2-35-00-1_meter_141,0.000000,0.000000,0.000000,0.000000,-125.509158,231.722476
R2-35-00-1_meter_142,260.038881,-9.684428,0.000000,0.000000,0.000000,0.000000
R2-35-00-1_meter_143,253.149941,-13.280126,0.000000,0.000000,0.000000,0.000000
R2-35-00-1_meter_144,265.207236,-6.805942,0.000000,0.000000,0.000000,0.000000
R2-35-00-1_meter_145,272.436502,-1.086397,-138.013275,-236.878998,0.000000,0.000000
R2-35-00-1_meter_146,0.000000,0.000000,0.000000,0.000000,-119.195332,227.790385
R2-35-00-1_meter_147,273.460459,-0.737586,-137.840495,-235.667719,0.000000,0.000000
R2-35-00-1_meter_148,272.484404,-1.003587,-138.220106,-236.154443,0.000000,0.000000
R2-35-00-1_meter_149,0.000000,0.000000,-138.371798,-223.679435,0.000000,0.000000
R2-35-00-1_meter_150,267.131281,-4.427293,0.000000,0.000000,0.000000,0.000000
R2-35-00-1_meter_151,273.916441,-0.301340,-137.805697,-237.314515,-137.137729,238.300066
R2-35-00-1_meter_152,0.000000,0.000000,-137.917614,-229.441682,0.000000,0.000000
R2-35-00-1_meter_153,0.000000,0.000000,-138.859162,-233.719046,0.000000,0.000000
R2-35-00-1_meter_154,0.000000,0.000000,-138.421192,-229.412060,0.000000,0.000000
R2-35-00-1_meter_155,271.597504,-1.490637,0.000000,0.000000,0.000000,0.000000
R2-35-00-1_meter_156,271.751695,-1.423281,0.000000,0.000000,0.000000,0.000000
R2-35-00-1_meter_157,0.000000,0.000000,-138.874788,-233.729641,0.000000,0.000000
R2-35-00-1_meter_158,0.000000,0.000000,0.000000,0.000000,-130.392390,234.575342
R2-35-00-1_meter_159,267.114797,-4.418063,0.000000,0.000000,0.000000,0.000000
R2-35-00-1_meter_160,273.530479,-0.545247,-137.821879,-236.867493,-136.746629,238.093277
R2-35-00-1_meter_161,0.000000,0.000000,-137.861162,-223.692169,0.000000,0.000000
R2-35-00-1_meter_162,274.201892,-1.375237,-138.396311,-236.756006,-135.993693,238.470205
R2-35-00-1_meter_163,266.876247,-4.318642,0.000000,0.000000,0.000000,0.000000
R2-35-00-1_meter_164,270.536937,-2.136118,0.000000,0.000000,0.000000,0.000000
R2-35-00-1_meter_165,274.027028,-0.250498,-137.807781,-237.437345,-137.087263,238.276525
R2-35-00-1_meter_166,273.344450,-0.683821,-137.889912,-237.466994,-137.192655,238.340905
R2-35-00-1_meter_167,0.000000,0.000000,-138.861637,-233.719878,0.000000,0.000000
R2-35-00-1_meter_168,261.765649,-7.225834,0.000000,0.000000,0.000000,0.000000
R2-35-00-1_meter_169,262.018678,-7.337868,0.000000,0.000000,0.000000,0.000000
R2-35-00-1_meter_170,273.893006,-0.511536,-137.826214,-237.055102,-136.934226,238.367671
R2-35-00-1_meter_171,0.000000,0.000000,0.000000,0.000000,-125.492936,231.694848
R2-35-00-1_meter_172,271.378301,-1.894968,0.000000,0.000000,-134.575585,236.920590
R2-35-00-1_meter_173,269.753395,-4.784098,-139.290865,-231.192357,-131.011680,236.962864
R2-35-00-1_meter_174,270.641876,-4.418465,-139.278643,-231.981903,-131.731171,237.531719
R2-35-00-1_meter_175,270.700768,-4.312132,-139.251203,-231.732884,-131.826909,237.540002
R2-35-00-1_meter_176,274.914951,-0.858910,-138.419770,-237.781686,-136.829087,238.874355
R2-35-00-1_meter_177,270.608133,-4.239447,-139.256157,-231.363643,-131.855643,237.428950
R2-35-00-1_meter_178,270.625821,-4.315199,-139.205640,-231.638030,-131.750201,237.489932
R2-35-00-1_meter_179,0.000000,0.000000,-139.274698,-228.512560,0.000000,0.000000
R2-35-00-1_meter_180,268.344145,-4.805441,0.000000,0.000000,0.000000,0.000000
R2-35-00-1_meter_181,263.600434,-8.294799,0.000000,0.000000,0.000000,0.000000
R2-35-00-1_meter_182,270.473778,-4.260641,-139.178747,-231.994833,-131.453276,237.194987
R2-35-00-1_meter_183,270.828973,-4.113876,-139.230989,-232.478612,-132.121295,237.458025
R2-35-00-1_meter_184,264.294164,-7.938961,0.000000,0.000000,0.000000,0.000000
R2-35-00-1_meter_185,270.488517,-4.505042,-139.255729,-232.084126,-131.596894,237.446774
R2-35-00-1_meter_186,269.285688,-4.825468,-139.136455,-231.121878,-131.548198,237.032668
R2-35-00-1_meter_187,269.592030,-4.029683,0.000000,0.000000,0.000000,0.000000
R2-35-00-1_meter_188,271.638359,-3.545963,-139.124751,-233.341912,-132.845118,237.743378
R2-35-00-1_meter_189,269.509349,-4.672498,-138.988907,-231.263927,-130.539521,236.265277
R2-35-00-1_meter_190,274.789819,-0.734992,-138.153831,-237.249854,-137.152504,238.740608
R2-35-00-1_meter_191,0.000000,0.000000,0.000000,0.000000,-125.114593,233.539330
R2-35-00-1_meter_192,0.000000,0.000000,0.000000,0.000000,-113.850203,226.445495
R2-35-00-1_meter_193,0.000000,0.000000,-139.183004,-224.130770,0.000000,0.000000
R2-35-00-1_meter_194,269.399673,-4.867849,-139.146858,-231.626883,-131.421690,237.160594
R2-35-00-1_meter_195,270.315739,-4.348299,-139.165331,-232.145536,-131.262021,237.090565
R2-35-00-1_meter_196,271.549307,-3.598171,-139.122361,-233.339794,-132.896844,237.770015
R2-35-00-1_meter_197,0.000000,0.000000,-138.662581,-211.874435,0.000000,0.000000
R2-35-00-1_meter_198,257.392211,-11.348270,0.000000,0.000000,0.000000,0.000000
R2-35-00-1_meter_199,268.706459,-4.769907,-138.871674,-231.145186,-130.961414,236.329379
R2-35-00-1_meter_200,268.268746,-4.734835,-138.829318,-230.292728,-130.579360,236.012201
...
R2-35-00-1_node_1,18998.798249,-335.970017,-9855.407242,-16328.060549,-9282.770761,16744.249098
R2-35-00-1_node_2,18998.798249,-335.970017,-9855.407242,-16328.060549,-9282.770761,16744.249098
R2-35-00-1_node_3,0.000000,0.000000,-9940.116460,-17080.442051,0.000000,0.000000
R2-35-00-1_node_4,0.000000,0.000000,-9984.942296,-16684.892471,0.000000,0.000000
R2-35-00-1_node_5,19522.402965,-261.236844,-10005.955000,-16774.402103,-9552.486033,17098.307441
R2-35-00-1_node_6,19444.636279,-280.410795,-9993.249973,-16704.056485,-9497.999253,17057.011060
R2-35-00-1_node_7,19799.314398,-34.791964,0.000000,0.000000,0.000000,0.000000
R2-35-00-1_node_8,18999.338850,-337.186257,-9861.753920,-16334.107182,-9284.563320,16747.986219
R2-35-00-1_node_9,19091.098500,-347.300794,-9896.020845,-16394.200267,-9304.454044,16807.322624
R2-35-00-1_node_10,19091.635460,-347.795963,-9897.409845,-16395.458428,-9304.752658,16808.150248
R2-35-00-1_node_11,19100.304331,-351.471945,-9904.615322,-16401.718688,-9305.752931,16816.039271
R2-35-00-1_node_12,19100.785649,-351.444343,-9904.786201,-16402.162140,-9305.970087,16816.355100
R2-35-00-1_node_13,19100.208453,-351.622586,-9904.584465,-16401.663002,-9305.467398,16815.773671
R2-35-00-1_node_14,19092.523886,-354.132575,-9901.835727,-16394.557810,-9298.447154,16807.996884
R2-35-00-1_node_15,19095.569105,-353.150530,-9902.919027,-16397.550321,-9301.233455,16810.980394
R2-35-00-1_node_16,19097.238343,-352.549083,-9903.548305,-16399.086781,-9302.866744,16812.779865
R2-35-00-1_node_17,19092.642895,-354.064116,-9901.966465,-16394.664449,-9298.704147,16808.329877
R2-35-00-1_node_18,19105.090232,-350.641418,-9906.146857,-16405.792153,-9308.674688,16819.835321
R2-35-00-1_node_19,19126.546765,-346.766702,-9911.898512,-16424.121451,-9320.513284,16834.866934
R2-35-00-1_node_20,19123.623353,-347.246400,-9911.142290,-16421.658362,-9319.029312,16832.920519
R2-35-00-1_node_21,19118.326464,-348.115559,-9909.772101,-16417.195527,-9316.340522,16829.393837
R2-35-00-1_node_22,19111.761664,-349.193775,-9908.078522,-16411.680798,-9313.015212,16825.022358
R2-35-00-1_node_23,19110.739771,-348.908004,-9907.684707,-16411.384813,-9312.989617,16824.160467
R2-35-00-1_node_24,19111.798748,-349.186681,-9908.083524,-16411.695673,-9313.026945,16825.047668
R2-35-00-1_node_25,19126.407153,-346.739664,-9911.850989,-16424.103956,-9320.502337,16834.702802
R2-35-00-1_node_26,19098.274833,-351.024789,-9904.723696,-16400.313092,-9307.033043,16816.823410
R2-35-00-1_node_27,19087.765784,-352.453130,-9902.112870,-16391.468014,-9302.375352,16810.432574
R2-35-00-1_node_28,19433.767903,-287.527262,-9971.956162,-16656.554517,-9449.541464,17038.838407
R2-35-00-1_node_29,19075.118057,-354.218641,-9898.967801,-16380.941327,-9296.709107,16802.659819
R2-35-00-1_node_30,19067.013433,-355.386717,-9897.078722,-16374.239234,-9293.162214,16797.825669
R2-35-00-1_node_31,19443.444949,-286.133843,-9976.176824,-16664.896967,-9456.066416,17047.916521
R2-35-00-1_node_32,19439.961251,-286.663536,-9974.630025,-16661.912163,-9453.637058,17044.549596
R2-35-00-1_node_33,19441.756787,-286.390527,-9975.427262,-16663.450564,-9454.889176,17046.284946
R2-35-00-1_node_34,19439.529385,-286.730862,-9974.436679,-16661.543134,-9453.331120,17044.126482
R2-35-00-1_node_35,19436.518735,-287.246924,-9973.042151,-16658.999555,-9451.061813,17041.011676
R2-35-00-1_node_36,19436.420039,-287.258782,-9972.998915,-16658.910641,-9450.996894,17040.924908
R2-35-00-1_node_37,19433.767903,-287.527262,-9971.956162,-16656.554517,-9449.541464,17038.838407
R2-35-00-1_node_38,19061.652854,-356.133343,-9895.821883,-16369.777811,-9290.835293,16794.642074
R2-35-00-1_node_39,19059.792900,-356.394575,-9895.387554,-16368.228853,-9290.026368,16793.538379
R2-35-00-1_node_40,19055.214519,-354.937028,-9892.546594,-16365.312648,-9289.454989,16789.905198
R2-35-00-1_node_41,19037.017234,-349.179637,-9881.348906,-16353.725873,-9287.191711,16775.576756
R2-35-00-1_node_42,19033.749153,-348.527293,-9879.186606,-16351.259347,-9286.155723,16772.481509
R2-35-00-1_node_43,19006.411504,-338.674544,-9862.654191,-16334.879459,-9284.639127,16752.459686
R2-35-00-1_node_44,19007.153494,-338.945258,-9863.283804,-16335.504809,-9284.773741,16753.137072
R2-35-00-1_node_45,18991.314548,-332.367689,-9852.690652,-16324.737825,-9283.989435,16741.682777
R2-35-00-1_node_46,18982.240513,-329.295441,-9848.445024,-16320.861142,-9283.820023,16735.138242
R2-35-00-1_node_47,18977.666157,-327.776176,-9846.427553,-16319.037888,-9283.818590,16731.951403
R2-35-00-1_node_48,18976.480753,-327.345534,-9845.655212,-16318.399061,-9283.723384,16730.907470
R2-35-00-1_node_49,18976.480753,-327.345534,-9845.655212,-16318.399061,-9283.723384,16730.907470
R2-35-00-1_node_50,18976.480753,-327.345534,-9845.655212,-16318.399061,-9283.723384,16730.907470
R2-35-00-1_node_51,18976.480753,-327.345534,-9845.655212,-16318.399061,-9283.723384,16730.907470
R2-35-00-1_node_52,18981.803051,-329.144626,-9848.210644,-16320.659667,-9283.804367,16734.797217
R2-35-00-1_node_53,19005.966006,-338.662219,-9862.909772,-16335.123550,-9284.739837,16752.373520
R2-35-00-1_node_54,19004.202874,-338.225979,-9862.319029,-16334.527323,-9284.671527,16751.207151
R2-35-00-1_node_55,19003.792342,-338.129705,-9862.208401,-16334.418122,-9284.651262,16750.937688
R2-35-00-1_node_56,19003.089963,-337.973575,-9862.048533,-16334.251814,-9284.621378,16750.496347
R2-35-00-1_node_57,19003.085106,-337.971523,-9862.042483,-16334.241804,0.000000,0.000000
R2-35-00-1_node_58,0.000000,0.000000,-9850.680639,-16322.280828,0.000000,0.000000
R2-35-00-1_node_59,18976.663354,-327.548556,0.000000,0.000000,0.000000,0.000000
R2-35-00-1_node_60,19000.793862,-337.543550,-9861.714027,-16334.052540,-9284.464954,16748.782000
R2-35-00-1_node_61,18999.998169,-337.315820,-9861.732431,-16334.147257,-9284.447705,16748.177961
R2-35-00-1_node_62,18999.441017,-337.226450,-9861.836670,-16334.172745,-9284.577217,16748.090228
R2-35-00-1_node_63,19602.439633,-178.989174,-9970.784492,-16892.099013,-9663.788440,17109.397442
R2-35-00-1_node_64,19603.335439,-179.489206,-9971.641528,-16892.605263,-9663.789300,17110.388851
R2-35-00-1_node_65,19603.303031,-179.469948,-9971.574406,-16892.556159,-9663.768732,17110.319848
R2-35-00-1_node_66,19603.584970,-179.592402,-9971.889609,-16892.800149,-9663.844326,17110.684785
R2-35-00-1_node_67,19602.887075,-179.580662,-9971.965377,-16892.576903,-9663.759964,17110.484554
R2-35-00-1_node_68,19604.547509,-180.154730,-9972.953662,-16893.422405,-9663.872153,17111.873817
R2-35-00-1_node_69,19607.136767,-189.331138,-9981.402650,-16892.365368,-9658.263541,17117.820994
R2-35-00-1_node_70,19607.488472,-189.415029,-9981.642476,-16892.634488,-9658.381195,17118.139327
R2-35-00-1_node_71,19607.661185,-189.453574,-9981.758512,-16892.767507,-9658.440248,17118.296159
R2-35-00-1_node_72,19609.061225,-189.767269,-9982.639711,-16893.818601,-9658.872708,17119.583549
R2-35-00-1_node_73,19614.860130,-185.800050,-9982.124478,-16898.902861,-9663.736609,17122.561256
R2-35-00-1_node_74,19609.450171,-189.873102,-9982.933061,-16894.162845,-9658.998918,17119.927817
R2-35-00-1_node_75,19614.867436,-185.796483,-9982.124725,-16898.910086,-9663.742304,17122.565439
R2-35-00-1_node_76,19614.923135,-185.760171,-9982.119288,-16898.958876,-9663.787815,17122.594164
R2-35-00-1_node_77,19609.859635,-190.053945,-9983.323928,-16894.463611,-9659.070153,17120.397415
R2-35-00-1_node_78,19185.708547,-337.092424,-9925.558481,-16472.409021,-9348.482783,16871.957566
R2-35-00-1_node_79,19614.756630,-185.721916,0.000000,0.000000,0.000000,0.000000
R2-35-00-1_node_80,19606.088665,-188.185790,-9980.876368,-16892.995901,-9659.167947,17116.859721
R2-35-00-1_node_81,19601.364419,-185.865223,-9977.970366,-16891.204439,-9659.355480,17112.692960
R2-35-00-1_node_82,19593.273787,-181.046324,-9969.479862,-16885.848476,-9659.121540,17103.984603
R2-35-00-1_node_83,19592.627869,-180.686134,-9968.862294,-16885.483363,-9659.120638,17103.269972
R2-35-00-1_node_84,19586.962278,-179.052523,0.000000,0.000000,0.000000,0.000000
R2-35-00-1_node_85,19185.994707,-337.064669,-9925.671378,-16472.661709,-9348.638723,16872.182067
R2-35-00-1_node_86,19592.601746,-180.728393,-9968.824803,-16885.256636,-9658.980746,17103.349897
R2-35-00-1_node_87,19186.031608,-337.061090,-9925.685936,-16472.694294,-9348.658831,16872.211017
R2-35-00-1_node_88,19599.276404,-185.404986,-9977.718102,-16890.927792,-9659.468260,17111.361772
R2-35-00-1_node_89,19587.308388,-179.125097,0.000000,0.000000,-9661.254455,17105.993238
R2-35-00-1_node_90,19591.866601,-181.584843,-9977.052274,-16890.696924,-9660.489323,17107.139904
R2-35-00-1_node_91,19186.326899,-336.962103,-9925.823088,-16472.956358,-9348.932831,16872.599951
R2-35-00-1_node_92,19591.676463,-181.487379,-9977.070240,-16890.723329,-9660.505066,17107.002189
R2-35-00-1_node_93,19586.666564,-178.991752,0.000000,0.000000,0.000000,0.000000
R2-35-00-1_node_94,19586.395702,-178.934529,0.000000,0.000000,0.000000,0.000000
R2-35-00-1_node_95,19589.312468,-179.396352,-9966.022649,-16882.965995,-9658.367456,17099.971457
R2-35-00-1_node_96,19184.666422,-335.834586,-9924.034032,-16472.555574,-9349.130672,16870.260830
R2-35-00-1_node_97,19187.063990,-336.925190,-9926.239938,-16473.893242,-9349.446935,16873.220800
R2-35-00-1_node_98,19186.332640,-336.473419,-9925.493474,-16473.634691,-9349.506173,16872.243622
R2-35-00-1_node_99,19590.286148,-181.021660,0.000000,0.000000,-9660.608764,17106.041233
R2-35-00-1_node_100,19184.119127,-335.630018,-9923.503097,-16472.199367,-9348.940701,16869.477848
R2-35-00-1_node_101,19149.224688,-342.462325,-9917.201910,-16443.287881,-9332.393865,16849.697499
R2-35-00-1_node_102,19585.142012,-178.671188,0.000000,0.000000,0.000000,0.000000
R2-35-00-1_node_103,19589.975876,-180.929152,0.000000,0.000000,-9660.641859,17105.742979
R2-35-00-1_node_104,19326.456783,-312.182763,-9966.379664,-16594.546407,-9427.955671,16973.960616
R2-35-00-1_node_105,19326.464570,-312.187178,-9966.387162,-16594.550764,-9427.955615,16973.969244
R2-35-00-1_node_106,19190.063023,-336.340412,-9928.092465,-16477.117082,-9352.387924,16876.975811
R2-35-00-1_node_107,19190.475736,-336.258415,-9928.346024,-16477.551042,-9352.794306,16877.496200
R2-35-00-1_node_108,19584.955959,-178.629239,0.000000,0.000000,0.000000,0.000000
R2-35-00-1_node_109,19589.917288,-180.915937,0.000000,0.000000,0.000000,0.000000
R2-35-00-1_node_110,19443.944428,-293.071964,-9999.107130,-16693.450647,-9490.212829,17056.213229
R2-35-00-1_node_111,19439.755663,-293.785757,-9997.961996,-16689.939028,-9487.981179,17053.279865
R2-35-00-1_node_112,19407.467116,-299.287945,-9989.134879,-16662.870165,-9470.778794,17030.668409
R2-35-00-1_node_113,19377.998274,-304.251836,-9981.035737,-16638.000313,-9455.051762,17010.081295
R2-35-00-1_node_114,19327.497024,-312.704694,-9966.960635,-16594.901974,-9427.870214,16974.750243
R2-35-00-1_node_115,19173.010353,-339.113581,-9923.943063,-16463.011410,-9344.109067,16866.010543
R2-35-00-1_node_116,19150.227635,-342.854580,-9918.013942,-16443.934377,-9332.532782,16850.720136
R2-35-00-1_node_117,19190.875057,-336.180137,-9928.592289,-16477.970361,-9353.186425,16878.000272
R2-35-00-1_node_118,0.000000,0.000000,0.000000,0.000000,-9483.789025,17068.307278
R2-35-00-1_node_119,19173.010353,-339.113581,-9923.943063,-16463.011410,-9344.109067,16866.010543
R2-35-00-1_node_120,19452.171409,-283.959137,0.000000,0.000000,-9464.549614,17056.279973
R2-35-00-1_node_121,19274.938848,-321.596102,-9952.044565,-16549.525161,-9399.101934,16937.672020
R2-35-00-1_node_122,19452.171409,-283.959137,0.000000,0.000000,-9464.549614,17056.279973
R2-35-00-1_node_123,19208.963643,-333.049387,-9933.652242,-16493.407071,-9363.080784,16890.837598
R2-35-00-1_node_124,0.000000,0.000000,0.000000,0.000000,-9363.079456,16890.833160
R2-35-00-1_node_125,19452.171409,-283.959137,0.000000,0.000000,-9464.549614,17056.279973
R2-35-00-1_node_126,0.000000,0.000000,0.000000,0.000000,-9484.059581,17069.110058
R2-35-00-1_node_127,19452.412356,-284.091745,-9980.905009,-16675.251495,-9464.579255,17056.558492
R2-35-00-1_node_128,0.000000,0.000000,0.000000,0.000000,-9484.326309,17069.900548
R2-35-00-1_node_129,0.000000,0.000000,0.000000,0.000000,-9474.198263,17060.878967
R2-35-00-1_node_130,19072.507878,-353.197336,-9896.855628,-16379.260580,-9296.348106,16800.000871
R2-35-00-1_node_131,19453.467641,-284.676545,-9981.706094,-16675.695823,-9464.621485,17058.223930
R2-35-00-1_node_132,0.000000,0.000000,0.000000,0.000000,-9460.101732,17052.929903
R2-35-00-1_node_133,19466.673286,-285.424248,-9995.624213,-16697.868956,-9487.196723,17072.493177
R2-35-00-1_node_134,19465.756106,-285.119265,-9994.230182,-16695.319623,-9484.951288,17071.777709
R2-35-00-1_node_135,19462.773169,-285.270641,-9991.242487,-16690.550595,-9479.491881,17068.230825
R2-35-00-1_node_136,19460.616719,-285.368805,-9988.938792,-16686.913041,-9475.310514,17065.546911
R2-35-00-1_node_137,19459.793185,-284.979968,-9987.662260,-16685.899681,-9474.329246,17064.092819
R2-35-00-1_node_138,19453.859709,-284.824348,-9982.198869,-16676.166312,-9464.797421,17058.717143
R2-35-00-1_node_139,0.000000,0.000000,0.000000,0.000000,-9460.122883,17052.996649
R2-35-00-1_node_140,19451.950417,-285.135837,-9980.977820,-16674.068638,-9462.916515,17056.425236
R2-35-00-1_node_141,19449.383787,-285.634059,-9979.201561,-16671.228853,-9460.135163,17053.032091
R2-35-00-1_node_142,19445.850085,-285.898946,-9977.440393,-16667.452695,-9457.813137,17050.105781
R2-35-00-1_node_143,19453.927413,-284.699117,-9982.025386,-16675.976721,-9464.357532,17058.853707
R2-35-00-1_node_144,0.000000,0.000000,-9989.744370,-16689.961811,0.000000,0.000000
R2-35-00-1_node_145,0.000000,0.000000,-9980.007104,-16673.934430,-9459.542112,17060.105140
R2-35-00-1_node_146,0.000000,0.000000,-9980.100564,-16673.949372,-9459.620186,17060.320959
R2-35-00-1_node_147,0.000000,0.000000,0.000000,0.000000,-9458.574467,17045.340375
R2-35-00-1_node_148,0.000000,0.000000,0.000000,0.000000,-9457.579107,17042.391077
R2-35-00-1_node_149,0.000000,0.000000,0.000000,0.000000,-9458.829202,17049.389405
R2-35-00-1_node_150,0.000000,0.000000,0.000000,0.000000,-9459.326942,17060.627198
R2-35-00-1_node_151,0.000000,0.000000,0.000000,0.000000,-9457.280400,17041.540119
R2-35-00-1_node_152,0.000000,0.000000,-9987.908134,-16687.725427,0.000000,0.000000
R2-35-00-1_node_153,19001.155174,-337.233458,-9858.681739,-16331.523579,-9283.319417,16746.023028
R2-35-00-1_node_154,0.000000,0.000000,-9854.652281,-16327.152442,0.000000,0.000000
R2-35-00-1_node_155,19001.199495,-337.226859,-9858.685524,-16331.497916,-9283.335064,16746.131308
R2-35-00-1_node_156,0.000000,0.000000,-9854.982669,-16327.553828,0.000000,0.000000
R2-35-00-1_node_157,0.000000,0.000000,-9986.342201,-16685.854833,0.000000,0.000000
R2-35-00-1_node_158,0.000000,0.000000,-9985.648626,-16685.383625,0.000000,0.000000
R2-35-00-1_node_159,0.000000,0.000000,0.000000,0.000000,-9455.758715,17064.775402
R2-35-00-1_node_160,0.000000,0.000000,0.000000,0.000000,-9282.216656,16741.881965
R2-35-00-1_node_161,0.000000,0.000000,0.000000,0.000000,-9455.723111,17064.667122
R2-35-00-1_node_162,18997.903769,-335.759234,-9854.228975,-16327.561321,-9282.216656,16741.881965
R2-35-00-1_node_163,18998.804118,-335.971147,-9855.408991,-16328.065722,-9282.769866,16744.248131
R2-35-00-1_node_164,18999.039387,-336.137161,-9855.922555,-16328.567786,-9282.883231,16744.549974
R2-35-00-1_node_165,18999.483214,-336.356663,-9856.664201,-16329.283187,-9283.050210,16745.102515
R2-35-00-1_node_166,18999.807582,-336.500744,-9857.130487,-16329.725999,-9283.165563,16745.495531
R2-35-00-1_node_167,19000.180231,-336.640621,-9857.481993,-16330.078567,-9283.230790,16745.824801
R2-35-00-1_node_168,19000.936047,-336.920729,-9858.230399,-16330.800482,-9283.406886,16746.574157
R2-35-00-1_node_169,19001.537199,-337.140423,-9858.854912,-16331.380167,-9283.582841,16747.237821
R2-35-00-1_node_170,19002.123121,-337.295343,-9859.386098,-16331.808171,-9283.783785,16748.078492
R2-35-00-1_node_171,19002.895370,-337.490927,-9859.868431,-16332.222575,-9283.935294,16748.935004
R2-35-00-1_node_172,19004.170953,-337.849372,-9860.712867,-16332.984878,-9284.194103,16750.304727
R2-35-00-1_node_173,19004.515416,-337.953621,-9860.960559,-16333.202238,-9284.260098,16750.667584
R2-35-00-1_node_174,19004.292822,-337.888597,-9860.807336,-16333.067263,-9284.220517,16750.439664
R2-35-00-1_node_175,0.000000,0.000000,-9985.487267,-16685.194506,0.000000,0.000000
R2-35-00-1_node_176,0.000000,0.000000,-9985.374713,-16685.114449,0.000000,0.000000
R2-35-00-1_node_177,19000.300325,-337.350659,-9861.315209,-16333.735173,-9284.396772,16748.280014
R2-35-00-1_node_178,0.000000,0.000000,-9939.268324,-17080.178313,0.000000,0.000000
R2-35-00-1_node_179,0.000000,0.000000,-9939.731785,-17080.470830,0.000000,0.000000
R2-35-00-1_node_180,0.000000,0.000000,-9941.008796,-17081.287152,0.000000,0.000000
R2-35-00-1_node_181,19625.324976,-177.153861,-9979.739044,-16908.660203,-9673.508134,17127.106788
R2-35-00-1_node_182,19772.736209,-57.088822,0.000000,0.000000,0.000000,0.000000
R2-35-00-1_node_183,19809.025215,-42.850277,-9947.074425,-17131.451975,-9870.285789,17191.749454
R2-35-00-1_node_184,19801.739552,-45.715133,-9946.282079,-17123.649002,-9864.363714,17187.968468
R2-35-00-1_node_185,19772.736209,-57.088822,-9943.049075,-17092.440970,-9840.664937,17172.855052
R2-35-00-1_node_186,19766.062591,-62.419339,-9944.747621,-17083.869059,-9833.123352,17170.873982
R2-35-00-1_node_187,19763.807600,-64.256405,-9945.307417,-17081.061031,-9830.566895,17170.170673
R2-35-00-1_node_188,19762.268413,-65.510454,-9945.689789,-17079.144225,-9828.821884,17169.691321
R2-35-00-1_node_189,19650.171296,-156.808192,-9973.533920,-16939.545443,-9701.791200,17134.838966
R2-35-00-1_node_190,19674.787243,-136.785538,-9967.422276,-16970.200652,-9729.642473,17142.446874
R2-35-00-1_node_191,19650.192300,-156.821592,-9973.556045,-16939.570377,-9701.790873,17134.842803
R2-35-00-1_node_192,19625.324976,-177.153861,-9979.739044,-16908.660203,-9673.508134,17127.106788
R2-35-00-1_node_193,19624.130030,-178.148188,-9980.004016,-16907.545910,-9672.360507,17126.573051
R2-35-00-1_node_194,19772.399508,-56.915288,0.000000,0.000000,0.000000,0.000000
R2-35-00-1_node_195,19615.719062,-184.953643,-9982.148739,-16896.116785,-9662.249874,17124.362798
R2-35-00-1_node_196,19611.531699,-188.376327,-9983.206498,-16890.669297,-9657.329592,17123.167211
R2-35-00-1_node_197,0.000000,0.000000,0.000000,0.000000,-9886.231454,17191.064166
R2-35-00-1_node_198,0.000000,0.000000,0.000000,0.000000,-9886.135722,17190.135117
R2-35-00-1_node_199,0.000000,0.000000,0.000000,0.000000,-9886.103838,17189.911403
R2-35-00-1_node_200,19763.070639,-18.164606,-9916.193071,-17109.130208,-9880.020583,17158.290816
...
R2-35-00-1_tm_1,-55.799105,100.621940,-55.799105,100.621940,0.000000,0.000000
R2-35-00-1_tm_2,114.169094,-2.004253,114.169094,-2.004253,0.000000,0.000000
R2-35-00-1_tm_3,-59.211884,-98.128917,-59.211884,-98.128917,0.000000,0.000000
R2-35-00-1_tm_4,-55.726597,100.111044,-55.726597,100.111044,0.000000,0.000000
R2-35-00-1_tm_5,113.897424,-1.845296,113.897424,-1.845296,0.000000,0.000000
R2-35-00-1_tm_6,-58.942459,-97.983455,-58.942459,-97.983455,0.000000,0.000000
R2-35-00-1_tm_7,-55.881867,100.329557,-55.881867,100.329557,0.000000,0.000000
R2-35-00-1_tm_8,114.168991,-2.003401,114.168991,-2.003401,0.000000,0.000000
R2-35-00-1_tm_9,-59.050113,-98.124917,-59.050113,-98.124917,0.000000,0.000000
R2-35-00-1_tm_10,-55.797275,100.617577,-55.797275,100.617577,0.000000,0.000000
R2-35-00-1_tm_11,114.170121,-2.005194,114.170121,-2.005194,0.000000,0.000000
R2-35-00-1_tm_12,114.168623,-2.004258,114.168623,-2.004258,0.000000,0.000000
R2-35-00-1_tm_13,-58.796447,-97.803367,-58.796447,-97.803367,0.000000,0.000000
R2-35-00-1_tm_14,-59.209226,-98.125668,-59.209226,-98.125668,0.000000,0.000000
R2-35-00-1_tm_15,-58.944995,-97.981002,-58.944995,-97.981002,0.000000,0.000000
R2-35-00-1_tm_16,-58.796447,-97.803367,-58.796447,-97.803367,0.000000,0.000000
R2-35-00-1_tm_17,-59.211363,-98.127956,-59.211363,-98.127956,0.000000,0.000000
R2-35-00-1_tm_18,-59.207284,-98.123339,-59.207284,-98.123339,0.000000,0.000000
R2-35-00-1_tm_19,-59.427925,102.971940,-59.427925,102.971940,0.000000,0.000000
R2-35-00-1_tm_20,-59.306356,102.690621,-59.306356,102.690621,0.000000,0.000000
R2-35-00-1_tm_21,-59.304621,102.680063,-59.304621,102.680063,0.000000,0.000000
R2-35-00-1_tm_22,-59.385471,102.886390,-59.385471,102.886390,0.000000,0.000000
R2-35-00-1_tm_23,-59.455781,103.038443,-59.455781,103.038443,0.000000,0.000000
R2-35-00-1_tm_24,-59.304576,102.679941,-59.304576,102.679941,0.000000,0.000000
R2-35-00-1_tm_25,-59.453762,103.033737,-59.453762,103.033737,0.000000,0.000000
R2-35-00-1_tm_26,-59.457697,102.968747,-59.457697,102.968747,0.000000,0.000000
R2-35-00-1_tm_27,-59.305619,102.680874,-59.305619,102.680874,0.000000,0.000000
R2-35-00-1_tm_28,-59.305639,102.680522,-59.305639,102.680522,0.000000,0.000000
R2-35-00-1_tm_29,117.776582,-1.192834,117.776582,-1.192834,0.000000,0.000000
R2-35-00-1_tm_30,-60.012062,-101.403613,-60.012062,-101.403613,0.000000,0.000000
R2-35-00-1_tm_31,-57.875285,102.388629,-57.875285,102.388629,0.000000,0.000000
R2-35-00-1_tm_32,-59.303666,102.677268,-59.303666,102.677268,0.000000,0.000000
R2-35-00-1_tm_33,-59.402910,102.919894,-59.402910,102.919894,0.000000,0.000000
R2-35-00-1_tm_34,-59.303780,102.677766,-59.303780,102.677766,0.000000,0.000000
R2-35-00-1_tm_35,-59.326921,-102.708584,-59.326921,-102.708584,0.000000,0.000000
R2-35-00-1_tm_36,-59.187405,-102.534940,-59.187405,-102.534940,0.000000,0.000000
R2-35-00-1_tm_37,-59.327565,-102.708921,-59.327565,-102.708921,0.000000,0.000000
R2-35-00-1_tm_38,-59.357479,102.832522,-59.357479,102.832522,0.000000,0.000000
R2-35-00-1_tm_39,-59.357334,102.832140,-59.357334,102.832140,0.000000,0.000000
R2-35-00-1_tm_40,-59.436452,103.032309,-59.436452,103.032309,0.000000,0.000000
R2-35-00-1_tm_41,-59.291489,-102.638420,-59.291489,-102.638420,0.000000,0.000000
R2-35-00-1_tm_42,-59.438401,-102.816543,-59.438401,-102.816543,0.000000,0.000000
R2-35-00-1_tm_43,-59.298802,-102.643346,-59.298802,-102.643346,0.000000,0.000000
R2-35-00-1_tm_44,-59.754469,-101.259629,-59.754469,-101.259629,0.000000,0.000000
R2-35-00-1_tm_45,117.598686,-0.994118,117.598686,-0.994118,0.000000,0.000000
R2-35-00-1_tm_46,-59.756772,-101.354039,-59.756772,-101.354039,0.000000,0.000000
R2-35-00-1_tm_47,-58.032862,102.642461,-58.032862,102.642461,0.000000,0.000000
R2-35-00-1_tm_48,117.768973,-1.188206,117.768973,-1.188206,0.000000,0.000000
R2-35-00-1_tm_49,-59.605839,-101.082922,-59.605839,-101.082922,0.000000,0.000000
R2-35-00-1_tm_50,-57.947097,102.873501,-57.947097,102.873501,0.000000,0.000000
R2-35-00-1_tm_51,117.581561,-1.010242,117.581561,-1.010242,0.000000,0.000000
R2-35-00-1_tm_52,-59.759126,-101.328677,-59.759126,-101.328677,0.000000,0.000000
R2-35-00-1_tm_53,-58.010049,102.636959,-58.010049,102.636959,0.000000,0.000000
R2-35-00-1_tm_54,-59.448449,-102.886933,-59.448449,-102.886933,0.000000,0.000000
R2-35-00-1_tm_55,117.275733,-0.995804,117.275733,-0.995804,0.000000,0.000000
R2-35-00-1_tm_56,-59.595063,-101.076032,-59.595063,-101.076032,0.000000,0.000000
R2-35-00-1_tm_57,-57.874600,102.372412,-57.874600,102.372412,0.000000,0.000000
R2-35-00-1_tm_58,117.499162,-1.029777,117.499162,-1.029777,0.000000,0.000000
R2-35-00-1_tm_59,-59.753116,-101.324255,-59.753116,-101.324255,0.000000,0.000000
R2-35-00-1_tm_60,-57.952974,102.577787,-57.952974,102.577787,0.000000,0.000000
R2-35-00-1_tm_61,-59.436162,103.030991,-59.436162,103.030991,0.000000,0.000000
R2-35-00-1_tm_62,-59.356677,102.825565,-59.356677,102.825565,0.000000,0.000000
R2-35-00-1_tm_63,-59.298266,-102.668348,-59.298266,-102.668348,0.000000,0.000000
R2-35-00-1_tm_64,118.461117,0.004122,118.461117,0.004122,0.000000,0.000000
R2-35-00-1_tm_65,118.240584,0.220836,118.240584,0.220836,0.000000,0.000000
R2-35-00-1_tm_66,-59.492477,-102.671598,-59.492477,-102.671598,0.000000,0.000000
R2-35-00-1_tm_67,117.919348,0.212972,117.919348,0.212972,0.000000,0.000000
R2-35-00-1_tm_68,-59.490682,-102.668189,-59.490682,-102.668189,0.000000,0.000000
R2-35-00-1_tm_69,-59.489877,-102.666660,-59.489877,-102.666660,0.000000,0.000000
R2-35-00-1_tm_70,-59.490541,-102.667921,-59.490541,-102.667921,0.000000,0.000000
R2-35-00-1_tm_71,-59.333584,-102.662133,-59.333584,-102.662133,0.000000,0.000000
R2-35-00-1_tm_72,118.396383,0.033424,118.396383,0.033424,0.000000,0.000000
R2-35-00-1_tm_73,-59.335294,-102.663052,-59.335294,-102.663052,0.000000,0.000000
R2-35-00-1_tm_74,-59.098092,-102.352125,-59.098092,-102.352125,0.000000,0.000000
R2-35-00-1_tm_75,-59.489703,-102.666327,-59.489703,-102.666327,0.000000,0.000000
R2-35-00-1_tm_76,-59.489719,-102.666359,-59.489719,-102.666359,0.000000,0.000000
R2-35-00-1_tm_77,-59.489799,-102.666510,-59.489799,-102.666510,0.000000,0.000000
R2-35-00-1_tm_78,118.259909,0.185695,118.259909,0.185695,0.000000,0.000000
R2-35-00-1_tm_79,118.394187,0.033703,118.394187,0.033703,0.000000,0.000000
R2-35-00-1_tm_80,-59.098397,-102.351042,-59.098397,-102.351042,0.000000,0.000000
R2-35-00-1_tm_81,-59.356660,102.825333,-59.356660,102.825333,0.000000,0.000000
R2-35-00-1_tm_82,117.906720,0.215676,117.906720,0.215676,0.000000,0.000000
R2-35-00-1_tm_83,117.906081,0.215796,117.906081,0.215796,0.000000,0.000000
R2-35-00-1_tm_84,117.906636,0.215692,117.906636,0.215692,0.000000,0.000000
R2-35-00-1_tm_85,118.393700,0.033682,118.393700,0.033682,0.000000,0.000000
R2-35-00-1_tm_86,118.393913,0.033691,118.393913,0.033691,0.000000,0.000000
...